powerflow/test/test.glm
// $Id$
//	Copyright (C) 2008 Battelle Memorial Institute
//
// Powerflow module self-test
// test 1: overhead line
// test 2: underground line
// test 3: triplex line
// test 4: single phase center tapped transformer
// test 5: WYE_WYE transformer
// test 6: meter
// test 7: triplex_meter
// test 8: regulator
// test 9: fuse

#set include="../../core"
#include "../../core/rt/msvc_debugger.glm"

#include "assert.glm"

clock {
	timezone EST+5EDT;
	starttime '2000-01-01 00:00:00 EST';
}

module powerflow;

///////////////////////////////////////////////////////
// test 1: overhead line 
///////////////////////////////////////////////////////
// A phase

object overhead_line {
	phases AN;
	length 300 ft;
	configuration object line_configuration {
		conductor_A object overhead_line_conductor {
			geometric_mean_radius 0.00446 ft;
			resistance 1.12 Ohm/mile;
			rating.summer.continuous 500;
		};
		conductor_N object overhead_line_conductor {
			geometric_mean_radius 0.00446 ft;
			resistance 1.12 Ohm/mile;
			rating.summer.continuous 500;
		};
		spacing object line_spacing {
			distance_AN 5.0249 ft;
		};
	};
	from object node {
		name OH_fA;
		phases AN;
		voltage_A 7200 + 0j;
		nominal_voltage 7200;
		maximum_voltage_error 1;
		
	};
	to object load {
		name OH_tA;
		phases AN;
		voltage_A 7200 + 0j;
		constant_current_A  1;
		constant_power_A 1500 + 750j;
		constant_impedance_A 1000 + 2000j;
		nominal_voltage 7200;
	//	maximum_voltage_error 1;		
		
	};
	object complex_assert {
		target "power_out";
		value 19.066 + 21.4836j;
		within 0.01;
	};		
};

// B phase

object overhead_line {
	phases BN;
	length 300 ft;
	configuration object line_configuration {
		conductor_B object overhead_line_conductor {
			geometric_mean_radius 0.00446 ft;
			resistance 1.12 Ohm/mile;
			rating.summer.continuous 500;
		};
		conductor_N object overhead_line_conductor {
			geometric_mean_radius 0.00446 ft;
			resistance 1.12 Ohm/mile;
			rating.summer.continuous 500;
		};
		spacing object line_spacing {
			distance_BN 5.0249 ft;
		};
	};
	from object node {
		name OH_fB;
		phases BN;
		voltage_B -3600 - 6235.4j;
		nominal_voltage 7200;
		maximum_voltage_error 1;
		
	};
	to object load {
		name OH_tB;
		phases BN;
		voltage_B -3600 - 6235.4j;
		constant_current_B  -0.5-0.866j;
		constant_power_B 1500 + 750j;
		constant_impedance_B 1000 + 2000j;
		nominal_voltage 7200;
	//	maximum_voltage_error 1;		
		
	};
	object complex_assert {
		target "power_out";
		value 19.0663 + 21.4836j;
		within 0.01;
	};		
};

// C phase

object overhead_line {
	phases CN;
	length 300 ft;
	configuration object line_configuration {
		conductor_C object overhead_line_conductor {
			geometric_mean_radius 0.00446 ft;
			resistance 1.12 Ohm/mile;
		};
		conductor_N object overhead_line_conductor {
			geometric_mean_radius 0.00446 ft;
			resistance 1.12 Ohm/mile;
		};
		spacing object line_spacing {
			distance_CN 5.0249 ft;
		};
	};
	from object node {
		name OH_fC;
		phases CN;
		voltage_C -3600 + 6235.4j;
		
	};
	to object load {
		name OH_tC;
		phases CN;		
		voltage_C -3600 + 6235.4j;
		constant_current_C  -0.5+0.866j;
		constant_power_C 1500 + 750j;
		constant_impedance_C 1000+2000j;		
	};
	object complex_assert {
		target "power_out";
		value 19.0663 + 21.4836j;
		within 0.01;
	};		
};

// ABCN phase

object overhead_line {
	phases ABCN;
	length 300 ft;
	configuration object line_configuration {
		conductor_A object overhead_line_conductor {
			geometric_mean_radius 0.00446 ft;
			resistance 1.12 Ohm/mile;
		};
		conductor_B object overhead_line_conductor {
			geometric_mean_radius 0.00446 ft;
			resistance 1.12 Ohm/mile;
		};
		conductor_C object overhead_line_conductor {
			geometric_mean_radius 0.00446 ft;
			resistance 1.12 Ohm/mile;
		};
		conductor_N object overhead_line_conductor {
			geometric_mean_radius 0.00446 ft;
			resistance 1.12 Ohm/mile;
		};
		spacing object line_spacing {
			distance_AB 7 ft;
			distance_BC 7 ft;
			distance_AC 7 ft;
			distance_AN 5.0249 ft;
			distance_BN 5.0249 ft;
			distance_CN 5.0249 ft;			
		};
	};
	from object node {
		name OH_fABC;
		phases ABCN;
		voltage_A 7200 + 0j;		
		voltage_B -3600 - 6235.4j;
		voltage_C -3600 + 6235.4j;		
	};
	to object load {
		name OH_tABC;
		phases ABCN;
		voltage_A 7200 + 0j;		
		voltage_B -3600 - 6235.4j;
		voltage_C -3600 + 6235.4j;
		constant_current_A  1;
		constant_current_B  -0.5-0.866j;
		constant_current_C  -0.5+0.866j;
		constant_power_A 1500 + 750j;
		constant_power_B 1500 + 750j;
		constant_power_C 1500 + 750j;
		constant_impedance_A 1000+2000j;
		constant_impedance_B 1000+2000j;
		constant_impedance_C 1000+2000j;	
	};
	object complex_assert {
		target "power_out";
		value 57.200 + 64.453j;
		within 0.01;
	};	
};


///////////////////////////////////////////////////////
// test 2: underground line 
///////////////////////////////////////////////////////
// ABCN phase

object underground_line {
	phases ABCN;
	length 5280 ft;
	configuration object line_configuration {
		conductor_A object underground_line_conductor {
			conductor_diameter 0.567;
			conductor_gmr 0.0171;
			conductor_resistance 0.41;
			outer_diameter 1.29;
			neutral_gmr 0.00208;
			neutral_diameter 0.0641;
			neutral_resistance 14.8722;
			neutral_strands 13;
		};
		conductor_B object underground_line_conductor {
			conductor_diameter 0.567;
			conductor_gmr 0.0171;
			conductor_resistance 0.41;
			outer_diameter 1.29;
			neutral_gmr 0.00208;
			neutral_diameter 0.0641;
			neutral_resistance 14.8722;
			neutral_strands 13;
		};
		conductor_C object underground_line_conductor {
			conductor_diameter 0.567;
			conductor_gmr 0.0171;
			conductor_resistance 0.41;
			outer_diameter 1.29;
			neutral_gmr 0.00208;
			neutral_diameter 0.0641;
			neutral_resistance 14.8722;
			neutral_strands 13;
		};
		conductor_N object underground_line_conductor {
			conductor_diameter 0.567;
			conductor_gmr 0.0171;
			conductor_resistance 0.41;
			outer_diameter 1.29;
			neutral_gmr 0.00208;
			neutral_diameter 0.0641;
			neutral_resistance 14.8722;
			neutral_strands 13;
		};
		spacing object line_spacing {
			distance_AB 0.5 ft;
			distance_BC 0.5 ft;
			distance_AC 1 ft;
			distance_AN 0 ft;
			distance_BN 0 ft;
			distance_CN 0 ft;			
		};
	};
	from object node {
		name UG_fABC;
		phases ABCN;
		voltage_A 7200 + 0j;		
		voltage_B -3600 - 6235.4j;
		voltage_C -3600 + 6235.4j;		
	};
	to object load {
		name UG_tABC;
		phases ABCN;
		voltage_A 7200 + 0j;		
		voltage_B -3600 - 6235.4j;
		voltage_C -3600 + 6235.4j;
		constant_current_A  1;
		constant_power_A 1000+2000j;	
		constant_impedance_A 1500 + 750j;
		constant_current_B  -0.5-0.866j;
		constant_power_B 1000+2000j;	
		constant_impedance_B 1500 + 750j;
		constant_current_C  -0.5+0.866j;
		constant_power_C 1000+2000j;	
		constant_impedance_C 1500 + 750j;
	};
	object complex_assert {
		target "power_out";
		value 107.457+47.4307j;
		within 0.01;
	};	
};

///////////////////////////////////////////////////////
// test 3: triplx line (TPL)
///////////////////////////////////////////////////////
// AS phase

object triplex_line {
	phases AN;
	length 100 ft;	
	configuration object triplex_line_configuration {
		conductor_1 object triplex_line_conductor {
			resistance 0.97;
			geometric_mean_radius 0.0111;		
		};
		conductor_2 object triplex_line_conductor {
			resistance 0.97;
			geometric_mean_radius 0.0111;		
		};
		conductor_N object triplex_line_conductor {
			resistance 0.97;
			geometric_mean_radius 0.0111;		
		};
		insulation_thickness 0.08 in;
		diameter 0.368 in;
	};
	from object triplex_node {
		name TPL_fAS;
		phases AS;
		voltage_1 120 + 0j;		
		voltage_2 120 + 0j;
		voltage_N 0;
	};
	to object triplex_node {
		name TPL_tAS;
		phases AS;
		voltage_1 120 + 0j;		
		voltage_2 120 + 0j;
		voltage_N 0;
		//current_1  1;
		power_1 1000+2000j;	
		shunt_1 5.3333e-004 -2.6667e-004i;		
	};
	object complex_assert {
		target "power_out";
		value 1.0076 + 2.0038j;
		within 0.01;
	};	
};

// BS phase

object triplex_line {
	phases BN;
	length 100 ft;	
	configuration object triplex_line_configuration {
		conductor_1 object triplex_line_conductor {
			resistance 0.97;
			geometric_mean_radius 0.0111;		
		};
		conductor_2 object triplex_line_conductor {
			resistance 0.97;
			geometric_mean_radius 0.0111;		
		};
		conductor_N object triplex_line_conductor {
			resistance 0.97;
			geometric_mean_radius 0.0111;		
		};
		insulation_thickness 0.08 in;
		diameter 0.368 in;
	};
	from object triplex_node {
		name TPL_fBS;
		phases BS;
		voltage_1 120 + 0j;		
		voltage_2 120 + 0j;
		voltage_N 0;
	};
	to object triplex_node {
		name TPL_tBS;
		phases BS;
		voltage_1 120 + 0j;		
		voltage_2 120 + 0j;
		voltage_N 0;
		//current_1  1;
		power_1 1000+2000j;	
		shunt_1 5.3333e-004 -2.6667e-004i;		
	};
	object complex_assert {
		target "power_out";
		value 1.0076 + 2.0038j;
		within 0.01;
	};	
};

// CS phase

object triplex_line {
	phases CN;
	length 100 ft;	
	configuration object triplex_line_configuration {
		conductor_1 object triplex_line_conductor {
			resistance 0.97;
			geometric_mean_radius 0.0111;		
		};
		conductor_2 object triplex_line_conductor {
			resistance 0.97;
			geometric_mean_radius 0.0111;		
		};
		conductor_N object triplex_line_conductor {
			resistance 0.97;
			geometric_mean_radius 0.0111;		
		};
		insulation_thickness 0.08 in;
		diameter 0.368 in;
	};
	from object triplex_node {
		name TPL_fCS;
		phases CS;
		voltage_1 120 + 0j;		
		voltage_2 120 + 0j;
		voltage_N 0;
	};
	to object triplex_node {
		name TPL_tCS;
		phases CS;
		voltage_1 120 + 0j;		
		voltage_2 120 + 0j;
		voltage_N 0;
		//current_1  1;
		power_1 1000+2000j;	
		shunt_1 5.3333e-004 -2.6667e-004i;		
	};
	object complex_assert {
		target "power_out";
		value 1.0076 + 2.0038j;
		within 0.01;
	};	
};

///////////////////////////////////////////////////////
// test 4: SINGLE_PHASE_CENTER_TAPPED TRANSFORMER
///////////////////////////////////////////////////////
// AS

object transformer {
	phases AN;	
	configuration object transformer_configuration {
		connect_type SINGLE_PHASE_CENTER_TAPPED;
		install_type POLETOP;
		primary_voltage 7200 V;
		secondary_voltage 120 V;
		//kVA_rating 50;
		powerA_rating 50;
		resistance 0.011;
		reactance 0.018;
	};
	from object node {
		name SPCT_fAN;
		phases AN;
		voltage_A 7200 + 0j;		
		
	};
	to object triplex_node {
		name SPCT_tAS;
		phases AS;
		voltage_1 120 + 0j;		
		voltage_2 120 + 0j;
		voltage_N 0;
		//current_1  1;
		power_1 1000+2000j;	
		shunt_1 5.3333e-004 -2.6667e-004i;		
	};
	object complex_assert {
		target "power_out";
		value 1.0076 + 2.0038j;
		within 0.01;
	};		
	object complex_assert {
		target "power_in";
		value 1.0093 + 2.006j;
		within 0.01;
	};	
};

// BS

object transformer {
	phases BN;	
	configuration object transformer_configuration {
		connect_type SINGLE_PHASE_CENTER_TAPPED;
		install_type POLETOP;
		primary_voltage 7200 V;
		secondary_voltage 120 V;
		//kVA_rating 50;
		powerB_rating 50;
		resistance 0.011;
		reactance 0.018;
	};
	from object node {
		name SPCT_fBN;
		phases BN;
		voltage_B -3600 - 6235.4j;		
		
	};
	to object triplex_node {
		name SPCT_tBS;
		phases BS;
		voltage_1 -60 - 103.92j;
		voltage_2 -60 - 103.92j;
		voltage_N 0;
		//current_1  1;
		power_2 1000+2000j;	
		shunt_1 5.3333e-004 -2.6667e-004i;		
	};
	object complex_assert {	
		target "power_out";
		value 1.0077 + 2.0038j;
		within 0.01;
	};
	object complex_assert {	
		target "power_in";
		value -0.9907 - 1.9940j;
		within 0.01;
	};
};

// CS

object transformer {
	phases CN;	
	configuration object transformer_configuration {
		connect_type SINGLE_PHASE_CENTER_TAPPED;
		install_type POLETOP;
		primary_voltage 7200 V;
		secondary_voltage 120 V;
		//kVA_rating 50;
		powerC_rating 50;
		resistance 0.011;
		reactance 0.018;
	};
	from object node {
		name SPCT_fCN;
		phases CN;
		voltage_C -3600 + 6235.4j;		
		
	};
	to object triplex_node {
		name SPCT_tCS;
		phases CS;
		voltage_1 -60 + 103.92j;
		voltage_2 -60 + 103.92j;
		voltage_N 0;
		//current_1  1;
		power_1 1000+2000j;	
		shunt_2 5.3333e-004 -2.6667e-004i;		
	};
	object complex_assert {	
		target "power_out";
		value 1.0077 + 2.0038j;
		within 0.01;
	};	
	object complex_assert {	
		target "power_in";
		value  0.9940 + 1.9983j;
		within 0.01;
	};	
};

///////////////////////////////////////////////////////
// test 5:  WYE_WYE TRANSFORMER
///////////////////////////////////////////////////////
// AN

object transformer {
	phases AN;	
	configuration object transformer_configuration {
		connect_type WYE_WYE;
		install_type POLETOP;
		primary_voltage 7200 V;
		secondary_voltage 4160 V;
		power_rating 6000;
		powerA_rating 6000;
		resistance 0.01;
		reactance 0.06;
	};
	from object node {
		name XFMR_fAN;
		phases AN;
		voltage_A 7200 + 0j;		
		
	};
	to object load {
		name XFMR_tAN;
		phases AN;
		voltage_A 4160 + 0j;		
		voltage_B 0;
		voltage_C 0;
		constant_current_A  1;
		constant_power_A 1000+2000j;	
		constant_impedance_A 1500 + 750j;		
	};
	object complex_assert {
		target "power_out";
		value 14.3876 + 6.6134j;
		within 0.01;
	};		
	object complex_assert {
		target "power_in";
		value 14.3880 + 6.6160j;
		within 0.01;
	};	
};

// BN

object transformer {
	phases BN;	
	configuration object transformer_configuration {
		connect_type WYE_WYE;
		install_type POLETOP;
		primary_voltage 7200 V;
		secondary_voltage 4160 V;
		power_rating 6000;
		powerB_rating 6000;
		resistance 0.01;
		reactance 0.06;
	};
	from object node {
		name XFMR_fBN;
		phases BN;
		voltage_B -3600 - 6235.383j;		
		
	};
	to object load {
		name XFMR_tBN;
		phases BN;
		voltage_B -2080-3602.666j;		
		constant_current_B -0.5-0.866j;
		constant_power_B 1000+2000j;	
		constant_impedance_B 1500+750j;		
	};
	object complex_assert {
		target "power_out";
		value 14.3876 + 6.6134j;
		within 0.01;
	};		
	object complex_assert {
		target "power_in";
		value 14.3880 + 6.6160j;
		within 0.01;
	};	
};

// CN

object transformer {
	phases CN;	
	configuration object transformer_configuration {
		connect_type WYE_WYE;
		install_type POLETOP;
		primary_voltage 7200 V;
		secondary_voltage 4160 V;
		power_rating 6000;
		powerC_rating 6000;
		resistance 0.01;
		reactance 0.06;
	};
	from object node {
		name XFMR_fCN;
		phases CN;
		voltage_C -3600 + 6235.383j;		
		
	};
	to object load {
		name XFMR_tCN;
		phases CN;
		voltage_C -2080 + 3602.666j;		
		constant_current_C -0.5+0.866j;
		constant_power_C 1000+2000j;	
		constant_impedance_C 1500+750j;		
	};
	object complex_assert {
		target "power_out";
		value 14.3876 + 6.6134j;
		within 0.01;
	};		
	object complex_assert {
		target "power_in";
		value 14.3880 + 6.6160j;
		within 0.01;
	};	
};

// ABCN

object transformer {
	phases ABCN;	
	configuration object transformer_configuration {
		connect_type WYE_WYE;
		install_type POLETOP;
		primary_voltage 7200 V;
		secondary_voltage 4160 V;
		power_rating 6000;
		powerA_rating 2000;
		powerB_rating 2000;
		powerC_rating 2000;
		resistance 0.01;
		reactance 0.06;
	};
	from object node {
		name XFMR_fABCN;		
		phases ABCN;
		voltage_A 7200 + 0j;		
		voltage_B -3600 - 6235.383j;		
		voltage_C -3600 + 6235.383j;		
		
	};
	to object load {
		name XFMR_tABCN;
		phases ABCN;
		voltage_A 4160 +0j;
		voltage_B -2080 - 3602.666j;
		voltage_C -2080 + 3602.666j;		
		constant_current_A 1;
		constant_current_B -0.5-0.866j;
		constant_current_C -0.5+0.866j;
		constant_power_A 1000+2000j;	
		constant_power_B 1000+2000j;	
		constant_power_C 1000+2000j;	
		constant_impedance_A 1500+750j;		
		constant_impedance_B 1500+750j;		
		constant_impedance_C 1500+750j;		
	};
	object complex_assert {
		target "power_out";
		value 43.1628 + 19.8403j;
		within 0.01;
	};		
	object complex_assert {
		target "power_in";
		value 43.1641 + 19.8479j;
		within 0.01;
	};	
};

///////////////////////////////////////////////////////
// test 6: meter
///////////////////////////////////////////////////////
// Single phase at phase A

object overhead_line {
	phases AN;
	length 300 ft;
	configuration object line_configuration {
		conductor_A object overhead_line_conductor {
			geometric_mean_radius 0.00446 ft;
			resistance 1.12 Ohm/mile;
			rating.summer.continuous 500;
		};
		conductor_N object overhead_line_conductor {
			geometric_mean_radius 0.00446 ft;
			resistance 1.12 Ohm/mile;
			rating.summer.continuous 500;
		};
		spacing object line_spacing {
			distance_AN 5.0249 ft;
		};
	};
	from object node {
		name meter_fA;
		phases AN;
		voltage_A 7200 + 0j;
		nominal_voltage 7200;
		maximum_voltage_error 1;
		
	};
	to object meter {
		name meter_tmeterA;
		phases AN;
		voltage_A 7200 + 0j;
		nominal_voltage 7200;
		object load {
			name meter_tA;
			phases AN;
			voltage_A 7200 + 0j;
			constant_current_A  1;
			constant_power_A 1500 + 750j;
			constant_impedance_A 1000 + 2000j;
			nominal_voltage 7200;
		//	maximum_voltage_error 1;		
		};
		object complex_assert {
			target "measured_current_A";			
			value 2.6483 - 2.9840j;
			within 0.01;
		};
		object complex_assert {
			target "measured_current_B";			
			value 0 + 0j;
			within 0.01;
		};
		object complex_assert {
			target "measured_current_C";			
			value 0 + 0j;
			within 0.01;
		};		
		object double_assert {
			target "measured_power";			
			value 28.724;
			within 0.01;
		};		
	};	
};

// Single phase at phase B

object overhead_line {
	phases BN;
	length 300 ft;
	configuration object line_configuration {
		conductor_B object overhead_line_conductor {
			geometric_mean_radius 0.00446 ft;
			resistance 1.12 Ohm/mile;
			rating.summer.continuous 500;
		};
		conductor_N object overhead_line_conductor {
			geometric_mean_radius 0.00446 ft;
			resistance 1.12 Ohm/mile;
			rating.summer.continuous 500;
		};
		spacing object line_spacing {
			distance_BN 5.0249 ft;
		};
	};
	from object node {
		name meter_fB;
		phases BN;
		voltage_B -3600 - 6235.4j;
		nominal_voltage 7200;
		
	};
	to object meter {
		name meter_tmeterB;
		phases BN;
		voltage_B -3600 - 6235.4j;
		nominal_voltage 7200;
		object load {
			name meter_tB;
			phases BN;
			voltage_B -3600 - 6235.4j;
			constant_current_B  -0.5 - 0.866j;
			constant_power_B 1500 + 750j;
			constant_impedance_B 1000 + 2000j;
			nominal_voltage 7200;
		};
		object complex_assert {
			target "measured_current_A";			
			value 0+0j;
			within 0.01;
		};	
		object complex_assert {
			target "measured_current_B";			
			value -3.9084-0.8014j;
			within 0.01;
		};	
		object complex_assert {
			target "measured_current_C";			
			value 0+0j;
			within 0.01;
		};
		object double_assert {
			target "measured_power";			
			value 28.724;
			within 0.01;
		};		
	};	
};

// Single phase at phase C

object overhead_line {
	phases CN;
	length 300 ft;
	configuration object line_configuration {
		conductor_C object overhead_line_conductor {
			geometric_mean_radius 0.00446 ft;
			resistance 1.12 Ohm/mile;
			rating.summer.continuous 500;
		};
		conductor_N object overhead_line_conductor {
			geometric_mean_radius 0.00446 ft;
			resistance 1.12 Ohm/mile;
			rating.summer.continuous 500;
		};
		spacing object line_spacing {
			distance_CN 5.0249 ft;
		};
	};
	from object node {
		name meter_fC;
		phases CN;
		voltage_C -3600 + 6235.4j;
		nominal_voltage 7200;
		maximum_voltage_error 1;		
	};
	to object meter {
		name meter_tmeterC;
		phases CN;
		voltage_C -3600 + 6235.4j;
		nominal_voltage 7200;
		object load {
			name meter_tC;
			phases CN;
			voltage_C -3600 + 6235.4j;
			constant_current_C  -0.5+0.866j;
			constant_power_C 1500 + 750j;
			constant_impedance_C 1000 + 2000j;
			nominal_voltage 7200;
		};
		object complex_assert {
			target "measured_current_A";			
			value  0+0j;
			within 0.01;
		};	
		object complex_assert {
			target "measured_current_B";			
			value  0+0j;
			within 0.01;
		};	
		object complex_assert {
			target "measured_current_C";			
			value  1.260 + 3.7854j;
			within 0.01;
		};		
		object double_assert {
			target "measured_power";			
			value 28.724;
			within 0.01;
		};		
	};	
};

// POLYPHASES

object overhead_line {
	phases ABCN;
	length 300 ft;
	configuration object line_configuration {
		conductor_A object overhead_line_conductor {
			geometric_mean_radius 0.00446 ft;
			resistance 1.12 Ohm/mile;
			rating.summer.continuous 500;
		};
		conductor_B object overhead_line_conductor {
			geometric_mean_radius 0.00446 ft;
			resistance 1.12 Ohm/mile;
			rating.summer.continuous 500;
		};
		conductor_C object overhead_line_conductor {
			geometric_mean_radius 0.00446 ft;
			resistance 1.12 Ohm/mile;
			rating.summer.continuous 500;
		};
		conductor_N object overhead_line_conductor {
			geometric_mean_radius 0.00446 ft;
			resistance 1.12 Ohm/mile;
			rating.summer.continuous 500;
		};
		spacing object line_spacing {
			distance_AB 7 ft;
			distance_BC 7 ft;
			distance_AC 7 ft;
			distance_AN 5.0249 ft;
			distance_BN 5.0249 ft;
			distance_CN 5.0249 ft;			
		};
	};
	from object node {
		name meter_fABC;
		phases ABCN;
		voltage_A 7200 + 0j;		
		voltage_B -3600 - 6235.4j;
		voltage_C -3600 + 6235.4j;		
		nominal_voltage 7200;
	};
	to object meter {
		name meter_tmeterABC;
		phases ABCN;
		voltage_A 7200 + 0j;		
		voltage_B -3600 - 6235.4j;
		voltage_C -3600 + 6235.4j;		
		nominal_voltage 7200;
		object load {
			name meter_tABC;
			phases ABCN;
			voltage_A 7200 + 0j;		
			voltage_B -3600 - 6235.4j;
			voltage_C -3600 + 6235.4j;		
			constant_current_A 1;
			constant_current_B  -0.5-0.866j;
			constant_current_C  -0.5+0.866j;
			constant_power_A 1500 + 750j;
			constant_power_B 1500 + 750j;
			constant_power_C 1500 + 750j;
			constant_impedance_A 1000 + 2000j;
			constant_impedance_B 1000 + 2000j;
			constant_impedance_C 1000 + 2000j;
			nominal_voltage 7200;
		};
		object complex_assert {
			target "measured_current_A";			
			value  2.6483 - 2.9840j;
			within 0.01;
		};	
		object complex_assert {
			target "measured_current_B";			
			value -3.9084-0.8014j;
			within 0.01;
		};	
		object complex_assert {
			target "measured_current_C";			
			value  1.260 + 3.7854j;
			within 0.01;
		};		
		object double_assert {
			target "measured_power";			
			value 86.1743;
			within 0.01;
		};				
	};		
};

///////////////////////////////////////////////////////
// test 7: triplx line meter (TPmeter)
///////////////////////////////////////////////////////
// AS phase

object triplex_line {
	phases AN;
	length 100 ft;	
	configuration object triplex_line_configuration {
		conductor_1 object triplex_line_conductor {
			resistance 0.97;
			geometric_mean_radius 0.0111;		
		};
		conductor_2 object triplex_line_conductor {
			resistance 0.97;
			geometric_mean_radius 0.0111;		
		};
		conductor_N object triplex_line_conductor {
			resistance 0.97;
			geometric_mean_radius 0.0111;		
		};
		insulation_thickness 0.08 in;
		diameter 0.368 in;
	};
	from object triplex_node {
		name TPmeter_fAS;
		phases AS;
		voltage_1 120 + 0j;		
		voltage_2 120 + 0j;
		voltage_N 0;
		nominal_voltage 120;
	};
	to object triplex_meter {
		name TPmeter_tAS;
		phases AS;
		voltage_1 120 + 0j;
		voltage_2 120 + 0j;
		voltage_N 0 + 0j;
		nominal_voltage 120;	
		object triplex_node {
			name TPmeter_tAS;
			phases AS;
			voltage_1 120 + 0j;		
			voltage_2 120 + 0j;
			voltage_N 0;
			//current_1  1;
			power_1 1000+2000j;	
			//shunt_1 5.3333e-004 -2.6667e-004i;		
			impedance_2 1500 + 750j;
		};
		object complex_assert {
			target "measured_current_1";			
			value 8.43187 - 16.6773j;
			//value 8.4964-16.709j;
			within 0.01;
		};				
		object complex_assert {
			target "measured_current_2";			
			value 0.06393 + -0.03183j;
			within 0.01;
		};		
		object complex_assert {
			target "measured_current_N";			
			value -8.4964+16.709j;
			within 0.01;
		};		
		object double_assert {
			target "measured_power";
			value 2.2429;
			within 0.01;
		};	
	};	
};

// BS phase

object triplex_line {
	phases BN;
	length 100 ft;	
	configuration object triplex_line_configuration {
		conductor_1 object triplex_line_conductor {
			resistance 0.97;
			geometric_mean_radius 0.0111;		
		};
		conductor_2 object triplex_line_conductor {
			resistance 0.97;
			geometric_mean_radius 0.0111;		
		};
		conductor_N object triplex_line_conductor {
			resistance 0.97;
			geometric_mean_radius 0.0111;		
		};
		insulation_thickness 0.08 in;
		diameter 0.368 in;
	};
	from object triplex_node {
		name TPmeter_fBS;
		phases BS;
		voltage_1 -60-103.923j;	
		voltage_2 -60-103.923j;
		voltage_N 0;
		nominal_voltage 120;
	};
	to object triplex_meter {
		name TPmeter_tBS;
		phases BS;
		voltage_1 -60-103.923j;
		voltage_2 -60-103.923j;
		voltage_N 0 + 0j;
		nominal_voltage 120;	
		object triplex_node {
			name TPmeter_tBS;
			phases BS;
			voltage_1 -60-103.923j;
			voltage_2 -60-103.923j;
			voltage_N 0;
			//current_1  1;
			power_1 1000+2000j;	
			//shunt_1 5.3333e-004 -2.6667e-004i;		
			impedance_2 1500 + 750j;
		};
		object complex_assert {
			target "measured_current_1";			
			value -18.659+1.0365j;
			within 0.01;
		};				
		object complex_assert {
			target "measured_current_2";			
			value -0.05953 - 0.03945j;
			within 0.01;
		};		
		object complex_assert {
			target "measured_current_N";			
			value 18.7185 -0.9970j;
			within 0.01;
		};		
		object double_assert {
			target "measured_power";
			value 2.2429;
			within 0.01;
		};	
	};	
};

// CS phase

object triplex_line {
	phases CN;
	length 100 ft;	
	configuration object triplex_line_configuration {
		conductor_1 object triplex_line_conductor {
			resistance 0.97;
			geometric_mean_radius 0.0111;		
		};
		conductor_2 object triplex_line_conductor {
			resistance 0.97;
			geometric_mean_radius 0.0111;		
		};
		conductor_N object triplex_line_conductor {
			resistance 0.97;
			geometric_mean_radius 0.0111;		
		};
		insulation_thickness 0.08 in;
		diameter 0.368 in;
	};
	from object triplex_node {
		name TPmeter_fCS;
		phases CS;
		voltage_1 -60+103.923j;	
		voltage_2 -60+103.923j;
		voltage_N 0;
		nominal_voltage 120;
	};
	to object triplex_meter {
		name TPmeter_tCS;
		phases CS;
		voltage_1 -60+103.923j;
		voltage_2 -60+103.923j;
		voltage_N 0 + 0j;
		nominal_voltage 120;	
		object triplex_node {
			name TPmeter_tCS;
			phases CS;
			voltage_1 -60+103.923j;
			voltage_2 -60+103.923j;
			voltage_N 0;
			//current_1  1;
			power_1 1000+2000j;	
			//shunt_1 5.3333e-004 -2.6667e-004i;		
			impedance_2 1500 + 750j;
		};
		object complex_assert {
			target "measured_current_1";			
			value 10.227+15.641j;
			within 0.01;
		};				
		object complex_assert {
			target "measured_current_2";			
			value -0.0044 + 0.0713j;
			within 0.01;
		};		
		object complex_assert {
			target "measured_current_N";			
			value -10.2226-15.7122j;
			within 0.01;
		};		
		object double_assert {
			target "measured_power";
			value 2.2429;
			within 0.01;
		};	
	};	
};

///////////////////////////////////////////////////////
// test 8: regulator
///////////////////////////////////////////////////////
// Three Single Phase WYE Connected 

object regulator {
	phases ABCN;
	configuration object regulator_configuration {
		connect_type WYE_WYE;
		band_center 120;
		band_width 2;
		time_delay 30;
		raise_taps 16;
		lower_taps 16;
		current_transducer_ratio  600;
		power_transducer_ratio   60;
		compensator_r_setting   6.0;
		compensator_x_setting   12.0;
		CT_phase "ABC";
		PT_phase "ABC";
		regulation 0.10;
		high_voltage 120.0;
		tap_pos_A 4;
		tap_pos_B 5;
 		tap_pos_C 9;
	};
	from object node {
		name reg_fABC;
		phases ABCN;
		voltage_A 7200 + 0j;		
		voltage_B -3600 - 6235.4j;
		voltage_C -3600 + 6235.4j;		
	};
	to object node {
		name reg_tABC;
		phases ABCN;
		voltage_A 7200 + 0j;		
		voltage_B -3600 - 6235.4j;
		voltage_C -3600 + 6235.4j;		
		object complex_assert {
			target "voltage_A";
			value 7384.62 + 0j;
			within 0.01;
		};
		object complex_assert {
			target "voltage_B";
			value -3716.13 - 6436.54j;
			within 0.01;
		};
		object complex_assert {
			target "voltage_C";
			value -3814.57+6607.05j;
			within 0.01;
		};		
	};	
};


///////////////////////////////////////////////////////
// test 9: fuse
///////////////////////////////////////////////////////
// A phase current_limit = 1

object fuse {
	phases AN;
	name fuse_AN_1;
	current_limit 0.1;
	from object node {
		name fuse_fAN_1;
		phases AN;
		voltage_A 7200 + 0j;
		nominal_voltage 7200;
	};		
	to object load {
		name fuse_tAN_1;
		phases AN;
		voltage_A 7200 + 0j;
		nominal_voltage 7200;
		object complex_assert {
			target "current_A";
			value 0 + 0j;
			within 0.01;
		};	
	};
};	

// A phase current_limit = 1000

object fuse {
	phases AN;
	name fuse_AN_2;
	current_limit 1000;
	from object node {
		name fuse_fAN_2;
		phases AN;
		voltage_A 7200 + 0j;
		nominal_voltage 7200;
		
	};		
	to object load {
		name fuse_tAN_2;
		phases AN;
		voltage_A 7200 + 0j;
		constant_current_A  1;
		constant_power_A 1500 + 750j;
		constant_impedance_A 1000 + 2000j;
		nominal_voltage 7200;
		object complex_assert {
			target "current_A";
			value 2.6483 - 2.9840j;
			within 0.01;
		};	
	};
};	